
**** 08/02/15 11:11:48 ********* PSpice 9.2 (Mar 2000) ******** ID# 0 ********

 ** Profile: "SCHEMATIC1-t"  [ F:\USERS\ROOT\DOCUMENTS\ORCAD\finalvco\t-SCHEMATIC1-t.sim ] 


 ****     CIRCUIT DESCRIPTION


******************************************************************************




** Creating circuit file "t-SCHEMATIC1-t.sim.cir" 
** WARNING: THIS AUTOMATICALLY GENERATED FILE MAY BE OVERWRITTEN BY SUBSEQUENT SIMULATIONS

*Libraries: 
* Local Libraries :
* From [PSPICE NETLIST] section of F:\Program Files\Orcad\PSpice\PSpice.ini file:
.lib "nom.lib" 

*Analysis directives: 
.TRAN  0 1s 0 
.PROBE V(*) I(*) W(*) D(*) NOISE(*) 
.INC ".\t-SCHEMATIC1.net" 



**** INCLUDING t-SCHEMATIC1.net ****
* source T
R_R1         N00075 N00109  1k  
R_R5         0 N00109  1k  
V_V2         N00075 0  
+SIN 0 1 1k 0 0 0

**** RESUMING t-SCHEMATIC1-t.sim.cir ****
.END

**** 08/02/15 11:11:48 ********* PSpice 9.2 (Mar 2000) ******** ID# 0 ********

 ** Profile: "SCHEMATIC1-t"  [ F:\USERS\ROOT\DOCUMENTS\ORCAD\finalvco\t-SCHEMATIC1-t.sim ] 


 ****     INITIAL TRANSIENT SOLUTION       TEMPERATURE =   27.000 DEG C


******************************************************************************



 NODE   VOLTAGE     NODE   VOLTAGE     NODE   VOLTAGE     NODE   VOLTAGE


(N00075)    0.0000 (N00109)    0.0000 




    VOLTAGE SOURCE CURRENTS
    NAME         CURRENT

    V_V2         0.000E+00

    TOTAL POWER DISSIPATION   0.00E+00  WATTS



          JOB CONCLUDED

          TOTAL JOB TIME             .20
