
**** 08/21/15 13:40:37 ********* PSpice 9.2 (Mar 2000) ******** ID# 0 ********

 ** Profile: "SCHEMATIC1-test"  [ G:\Azelec3\Orcadfiles\vco-schematic1-test.sim ] 


 ****     CIRCUIT DESCRIPTION


******************************************************************************




** Creating circuit file "vco-schematic1-test.sim.cir" 
** WARNING: THIS AUTOMATICALLY GENERATED FILE MAY BE OVERWRITTEN BY SUBSEQUENT SIMULATIONS

*Libraries: 
* Local Libraries :
* From [PSPICE NETLIST] section of F:\Program Files\Orcad\PSpice\PSpice.ini file:
.lib "nom.lib" 

*Analysis directives: 
.TRAN  0 100ns 0 .00001 SKIPBP 
.PROBE V(*) I(*) W(*) D(*) NOISE(*) 
.INC ".\vco-SCHEMATIC1.net" 



**** INCLUDING vco-SCHEMATIC1.net ****
* source VCO
Q_Q1         N00434 N00884 N00405 Q2N3904
R_R6         0 N01207  47k  
C_C1         N00405 N00434  10p  
C_C2         N00434 N00729  30p  
C_C4         N01153 N01126  47u  
C_C3         N00434 N00729  200p  
C_C9         0 N00729  47u  
C_C5         N01207 N01180  47u  
L_L1         N00434 N00729  50nH  
C_C6         0 N01153  1n  
V_V1         N00729 0 9Vdc
C_C7         0 N01207  1n  
R_R8         0 N00884  10k  
R_R1         N00884 N00729  39k  
C_C8         0 N00729  1n  
R_R2         0 N00405  100  
R_R3         N01126 N00884  22k  
R_R4         0 N01153  47k  
R_R7         N028571 0  1k  
V_V3         N028571 0  
+SIN 0 0 0 0 0 0
C_C10         0 N00884  1n  
R_R5         N01180 N00884  22k  

**** RESUMING vco-schematic1-test.sim.cir ****
.END

**** 08/21/15 13:40:37 ********* PSpice 9.2 (Mar 2000) ******** ID# 0 ********

 ** Profile: "SCHEMATIC1-test"  [ G:\Azelec3\Orcadfiles\vco-schematic1-test.sim ] 


 ****     BJT MODEL PARAMETERS


******************************************************************************




               Q2N3904         
               NPN             
          IS    6.734000E-15 
          BF  416.4          
          NF    1            
         VAF   74.03         
         IKF     .06678      
         ISE    6.734000E-15 
          NE    1.259        
          BR     .7371       
          NR    1            
          RB   10            
          RC    1            
         CJE    4.493000E-12 
         MJE     .2593       
         CJC    3.638000E-12 
         MJC     .3085       
          TF  301.200000E-12 
         XTF    2            
         VTF    4            
         ITF     .4          
          TR  239.500000E-09 
         XTB    1.5          
          CN    2.42         
           D     .87         



          JOB CONCLUDED

          TOTAL JOB TIME             .11
